Version 4
SHEET 1 1592 1344
WIRE 368 -240 320 -240
WIRE 560 -240 512 -240
WIRE 320 -192 320 -240
WIRE 512 -192 512 -240
WIRE 320 -96 320 -112
WIRE 416 -96 320 -96
WIRE 512 -96 512 -112
WIRE 512 -96 416 -96
WIRE -304 -64 -304 -112
WIRE 416 -16 416 -96
WIRE -304 64 -304 16
WIRE -496 352 -496 288
WIRE -400 352 -400 288
WIRE 0 352 0 288
WIRE 96 352 96 288
WIRE 496 384 496 288
WIRE 592 384 592 288
WIRE 1024 384 1024 288
WIRE 1120 384 1120 288
WIRE -496 448 -496 416
WIRE -400 448 -400 416
WIRE -400 448 -496 448
WIRE 0 448 0 416
WIRE 96 448 96 416
WIRE 96 448 0 448
WIRE 592 448 496 448
WIRE 1120 448 1024 448
WIRE -496 528 -512 528
WIRE -400 528 -400 448
WIRE -400 528 -416 528
WIRE 16 528 0 528
WIRE 96 528 96 448
WIRE 512 528 496 528
WIRE 592 528 592 448
WIRE 1040 528 1024 528
WIRE 1120 528 1120 448
WIRE -512 560 -512 528
WIRE -400 560 -512 560
WIRE 0 560 0 528
WIRE 96 560 0 560
WIRE 496 560 496 528
WIRE 592 560 496 560
WIRE 1024 560 1024 528
WIRE 1120 560 1024 560
WIRE -400 592 -432 592
WIRE 96 592 64 592
WIRE 592 592 560 592
WIRE 1120 592 1088 592
WIRE -512 640 -512 560
WIRE 0 640 0 560
WIRE 496 640 496 560
WIRE 1024 640 1024 560
WIRE -160 656 -176 656
WIRE -160 688 -176 688
WIRE -160 720 -176 720
WIRE -160 752 -176 752
WIRE -160 784 -176 784
WIRE -160 816 -176 816
WIRE -160 848 -176 848
WIRE 496 848 320 848
WIRE 560 848 560 592
WIRE 560 848 496 848
WIRE 1520 848 1344 848
WIRE 1552 848 1520 848
WIRE -160 880 -176 880
WIRE -160 912 -176 912
WIRE -160 944 -176 944
WIRE -16 976 -176 976
WIRE 64 976 64 592
WIRE 64 976 -16 976
WIRE 1008 976 816 976
WIRE 1088 976 1088 592
WIRE 1088 976 1008 976
FLAG 416 -16 0
FLAG 368 -240 VDD
FLAG 560 -240 IN
FLAG -160 656 SEC_0
FLAG -160 688 SEC_1
FLAG -160 720 SEC_2
FLAG -160 752 SEC_3
FLAG -160 784 SEC_4
FLAG -160 816 SEC_5
FLAG -160 848 SEC_6
FLAG -160 880 SEC_7
FLAG -160 912 SEC_8
FLAG -160 944 SEC_9
FLAG -512 640 0
FLAG -432 592 IN
FLAG 0 640 0
FLAG 320 656 DSEC_0
FLAG 320 688 DSEC_1
FLAG 320 720 DSEC_2
FLAG 320 752 DSEC_3
FLAG 320 784 DSEC_4
FLAG 320 816 DSEC_5
FLAG 496 848 RESET_SEC
FLAG 96 288 RESET_SEC
FLAG -400 288 RESET_SEC
FLAG -16 976 INC_DSEC
FLAG -496 288 MASTER_RESET
FLAG 0 288 MASTER_RESET
FLAG -304 -112 MASTER_RESET
FLAG -304 64 0
FLAG 816 656 MIN_0
FLAG 816 688 MIN_1
FLAG 816 720 MIN_2
FLAG 816 752 MIN_3
FLAG 816 784 MIN_4
FLAG 816 816 MIN_5
FLAG 816 848 MIN_6
FLAG 816 880 MIN_7
FLAG 816 912 MIN_8
FLAG 816 944 MIN_9
FLAG 1024 640 0
FLAG 496 640 0
FLAG 1008 976 INC_DMIN
FLAG 1344 656 DMIN_0
FLAG 1344 688 DMIN_1
FLAG 1344 720 DMIN_2
FLAG 1344 752 DMIN_3
FLAG 1344 784 DMIN_4
FLAG 1344 816 DMIN_5
FLAG 496 288 MASTER_RESET
FLAG 1024 288 MASTER_RESET
FLAG 1520 848 RESET_MIN
FLAG 1120 288 RESET_MIN
FLAG 592 288 RESET_MIN
SYMBOL CD4017B -288 464 R0
SYMATTR InstName U1
SYMBOL voltage 320 -208 R0
SYMATTR InstName V1
SYMATTR Value 5
SYMBOL voltage 512 -208 R0
SYMATTR InstName V2
SYMATTR Value PULSE(0 5 0 0.1us 0.1us 0.5m 1m)
SYMBOL CD4017B 208 464 R0
SYMATTR InstName U2
SYMBOL res -400 512 R90
WINDOW 0 0 56 VBottom 2
WINDOW 3 32 56 VTop 2
SYMATTR InstName R1
SYMATTR Value 22.1K
SYMBOL res 112 512 R90
WINDOW 0 0 56 VBottom 2
WINDOW 3 32 56 VTop 2
SYMATTR InstName R2
SYMATTR Value 22.1K
SYMBOL diode -512 352 R0
SYMATTR InstName D1
SYMBOL diode -416 352 R0
SYMATTR InstName D2
SYMBOL diode -16 352 R0
SYMATTR InstName D3
SYMBOL diode 80 352 R0
SYMATTR InstName D4
SYMBOL voltage -304 -80 R0
SYMATTR InstName V3
SYMATTR Value PULSE(0 5 0 0.1u 0.1u 0.5m)
SYMBOL CD4017B 704 464 R0
SYMATTR InstName U3
SYMBOL CD4017B 1232 464 R0
SYMATTR InstName U4
SYMBOL res 608 512 R90
WINDOW 0 0 56 VBottom 2
WINDOW 3 32 56 VTop 2
SYMATTR InstName R3
SYMATTR Value 22.1K
SYMBOL res 1136 512 R90
WINDOW 0 0 56 VBottom 2
WINDOW 3 32 56 VTop 2
SYMATTR InstName R4
SYMATTR Value 22.1K
SYMBOL diode 576 384 R0
SYMATTR InstName D5
SYMBOL diode 480 384 R0
SYMATTR InstName D6
SYMBOL diode 1008 384 R0
SYMATTR InstName D7
SYMBOL diode 1104 384 R0
SYMATTR InstName D8
TEXT 1144 -264 Left 2 !.include cd4000_v.lib\n.tran 3800ms
