Version 4
SHEET 1 1320 1344
WIRE -496 352 -496 288
WIRE -400 352 -400 288
WIRE 0 352 0 288
WIRE 96 352 96 288
WIRE -832 416 -832 368
WIRE -496 448 -496 416
WIRE -400 448 -400 416
WIRE -400 448 -496 448
WIRE 0 448 0 416
WIRE 96 448 96 416
WIRE 96 448 0 448
WIRE -496 528 -512 528
WIRE -400 528 -400 448
WIRE -400 528 -416 528
WIRE 16 528 0 528
WIRE 96 528 96 448
WIRE -832 544 -832 496
WIRE -512 560 -512 528
WIRE -400 560 -512 560
WIRE 0 560 0 528
WIRE 96 560 0 560
WIRE -400 592 -432 592
WIRE 96 592 64 592
WIRE -512 640 -512 560
WIRE 0 640 0 560
WIRE -160 656 -176 656
WIRE -160 688 -176 688
WIRE -160 720 -176 720
WIRE -1136 752 -1184 752
WIRE -944 752 -992 752
WIRE -160 752 -176 752
WIRE -160 784 -176 784
WIRE -1184 800 -1184 752
WIRE -992 800 -992 752
WIRE -160 816 -176 816
WIRE -160 848 -176 848
WIRE -160 880 -176 880
WIRE -1184 896 -1184 880
WIRE -1088 896 -1184 896
WIRE -992 896 -992 880
WIRE -992 896 -1088 896
WIRE -160 912 -176 912
WIRE -160 944 -176 944
WIRE -1088 976 -1088 896
WIRE -16 976 -176 976
WIRE 64 976 64 592
WIRE 64 976 -16 976
FLAG -1088 976 0
FLAG -1136 752 VDD
FLAG -944 752 IN
FLAG -160 656 SEC_0
FLAG -160 688 SEC_1
FLAG -160 720 SEC_2
FLAG -160 752 SEC_3
FLAG -160 784 SEC_4
FLAG -160 816 SEC_5
FLAG -160 848 SEC_6
FLAG -160 880 SEC_7
FLAG -160 912 SEC_8
FLAG -160 944 SEC_9
FLAG -512 640 0
FLAG -432 592 IN
FLAG 0 640 0
FLAG 320 656 DSEC_0
FLAG 320 688 DSEC_1
FLAG 320 720 DSEC_2
FLAG 320 752 DSEC_3
FLAG 320 784 DSEC_4
FLAG 320 816 DSEC_5
FLAG 320 848 RESET_SEC
FLAG 96 288 RESET_SEC
FLAG -400 288 RESET_SEC
FLAG -16 976 INC_DSEC
FLAG -496 288 MASTER_RESET
FLAG 0 288 MASTER_RESET
FLAG -832 368 MASTER_RESET
FLAG -832 544 0
SYMBOL CD4017B -288 464 R0
SYMATTR InstName U1
SYMBOL voltage -1184 784 R0
SYMATTR InstName V1
SYMATTR Value 5
SYMBOL voltage -992 784 R0
SYMATTR InstName V2
SYMATTR Value PULSE(0 5 0 0.1us 0.1us 0.5 1)
SYMBOL CD4017B 208 464 R0
SYMATTR InstName U2
SYMBOL res -400 512 R90
WINDOW 0 0 56 VBottom 2
WINDOW 3 32 56 VTop 2
SYMATTR InstName R1
SYMATTR Value 22.1K
SYMBOL res 112 512 R90
WINDOW 0 0 56 VBottom 2
WINDOW 3 32 56 VTop 2
SYMATTR InstName R2
SYMATTR Value 22.1K
SYMBOL diode -512 352 R0
SYMATTR InstName D1
SYMBOL diode -416 352 R0
SYMATTR InstName D2
SYMBOL diode -16 352 R0
SYMATTR InstName D3
SYMBOL diode 80 352 R0
SYMATTR InstName D4
SYMBOL voltage -832 400 R0
SYMATTR InstName V3
SYMATTR Value PULSE(0 5 0 0.1u 0.1u 0.5)
TEXT -1200 136 Left 2 !.include cd4000_v.lib\n.tran 130s
